*Heading
** Job name: CE_IMPLICIT Model name: ASCavityExpansion
** Generated by: Abaqus/CAE 2019
*Preprint, echo=NO, model=NO, history=NO, contact=NO
**
** PARTS
**
*INCLUDE, input=Model_Para.dat
*Part, name=CE
*Node
      1,         37.5,           0.
      2,   40.0467148,           0.
      3,   42.6399384,           0.
      4,   45.2805252,           0.
      5,   47.9693375,           0.
      6,   50.7072563,           0.
      7,   53.4951782,           0.
      8,   56.3340187,           0.
      9,   59.2247047,           0.
     10,   62.1681862,           0.
     11,   65.1654205,           0.
     12,   68.2173996,           0.
     13,    71.325119,           0.
     14,   74.4895935,           0.
     15,   77.7118607,           0.
     16,   80.9929733,           0.
     17,   84.3340149,           0.
     18,   87.7360764,           0.
     19,   91.2002716,           0.
     20,   94.7277298,           0.
** ... 483 like lines cut
*Element, type=CAX8R
  1,   1,   2, 103, 102, 203, 204, 205, 206
  2,   2,   3, 104, 103, 207, 208, 209, 204
  3,   3,   4, 105, 104, 210, 211, 212, 208
  4,   4,   5, 106, 105, 213, 214, 215, 211
  5,   5,   6, 107, 106, 216, 217, 218, 214
  6,   6,   7, 108, 107, 219, 220, 221, 217
  7,   7,   8, 109, 108, 222, 223, 224, 220
  8,   8,   9, 110, 109, 225, 226, 227, 223
  9,   9,  10, 111, 110, 228, 229, 230, 226
 10,  10,  11, 112, 111, 231, 232, 233, 229
 11,  11,  12, 113, 112, 234, 235, 236, 232
 12,  12,  13, 114, 113, 237, 238, 239, 235
 13,  13,  14, 115, 114, 240, 241, 242, 238
 14,  14,  15, 116, 115, 243, 244, 245, 241
 15,  15,  16, 117, 116, 246, 247, 248, 244
 16,  16,  17, 118, 117, 249, 250, 251, 247
 17,  17,  18, 119, 118, 252, 253, 254, 250
 18,  18,  19, 120, 119, 255, 256, 257, 253
 19,  19,  20, 121, 120, 258, 259, 260, 256
 20,  20,  21, 122, 121, 261, 262, 263, 259
** ... 80 like lines cut
*Nset, nset=All, generate
   1,  503,    1
*Elset, elset=All, generate
   1,  100,    1
*Nset, nset=wall
 102,
** Section: Rock
*Solid Section, elset=All, material=DPIsodwSD
,
*End Part
**  
**
** ASSEMBLY
**
*Assembly, name=Assembly
**  
*Instance, name=CE-1, part=CE
*End Instance
**  
*Nset, nset=All, instance=CE-1, generate
   1,  503,    1
*Elset, elset=All, instance=CE-1, generate
   1,  100,    1
*Nset, nset=Bottom, instance=CE-1
   1,   2,   3,   4,   5,   6,   7,   8,   9,  10,  11,  12,  13,  14,  15,  16
  17,  18,  19,  20,  21,  22,  23,  24,  25,  26,  27,  28,  29,  30,  31,  32
  33,  34,  35,  36,  37,  38,  39,  40,  41,  42,  43,  44,  45,  46,  47,  48
  49,  50,  51,  52,  53,  54,  55,  56,  57,  58,  59,  60,  61,  62,  63,  64
  65,  66,  67,  68,  69,  70,  71,  72,  73,  74,  75,  76,  77,  78,  79,  80
  81,  82,  83,  84,  85,  86,  87,  88,  89,  90,  91,  92,  93,  94,  95,  96
  97,  98,  99, 100, 101, 203, 207, 210, 213, 216, 219, 222, 225, 228, 231, 234
 237, 240, 243, 246, 249, 252, 255, 258, 261, 264, 267, 270, 273, 276, 279, 282
 285, 288, 291, 294, 297, 300, 303, 306, 309, 312, 315, 318, 321, 324, 327, 330
 333, 336, 339, 342, 345, 348, 351, 354, 357, 360, 363, 366, 369, 372, 375, 378
 381, 384, 387, 390, 393, 396, 399, 402, 405, 408, 411, 414, 417, 420, 423, 426
 429, 432, 435, 438, 441, 444, 447, 450, 453, 456, 459, 462, 465, 468, 471, 474
 477, 480, 483, 486, 489, 492, 495, 498, 501
*Elset, elset=Bottom, instance=CE-1, generate
   1,  100,    1
*Nset, nset=Farfield, instance=CE-1
 101, 202, 502
*Elset, elset=Farfield, instance=CE-1
 100,
*Nset, nset=LoadingSurface, instance=CE-1
   1, 102, 206
*Elset, elset=LoadingSurface, instance=CE-1
 1,
*Nset, nset=Top, instance=CE-1
 102, 103, 104, 105, 106, 107, 108, 109, 110, 111, 112, 113, 114, 115, 116, 117
 118, 119, 120, 121, 122, 123, 124, 125, 126, 127, 128, 129, 130, 131, 132, 133
 134, 135, 136, 137, 138, 139, 140, 141, 142, 143, 144, 145, 146, 147, 148, 149
 150, 151, 152, 153, 154, 155, 156, 157, 158, 159, 160, 161, 162, 163, 164, 165
 166, 167, 168, 169, 170, 171, 172, 173, 174, 175, 176, 177, 178, 179, 180, 181
 182, 183, 184, 185, 186, 187, 188, 189, 190, 191, 192, 193, 194, 195, 196, 197
 198, 199, 200, 201, 202, 205, 209, 212, 215, 218, 221, 224, 227, 230, 233, 236
 239, 242, 245, 248, 251, 254, 257, 260, 263, 266, 269, 272, 275, 278, 281, 284
 287, 290, 293, 296, 299, 302, 305, 308, 311, 314, 317, 320, 323, 326, 329, 332
 335, 338, 341, 344, 347, 350, 353, 356, 359, 362, 365, 368, 371, 374, 377, 380
 383, 386, 389, 392, 395, 398, 401, 404, 407, 410, 413, 416, 419, 422, 425, 428
 431, 434, 437, 440, 443, 446, 449, 452, 455, 458, 461, 464, 467, 470, 473, 476
 479, 482, 485, 488, 491, 494, 497, 500, 503
*Elset, elset=Top, instance=CE-1, generate
   1,  100,    1
*Nset, nset=TopBottom, instance=CE-1
   1,   2,   3,   4,   5,   6,   7,   8,   9,  10,  11,  12,  13,  14,  15,  16
  17,  18,  19,  20,  21,  22,  23,  24,  25,  26,  27,  28,  29,  30,  31,  32
  33,  34,  35,  36,  37,  38,  39,  40,  41,  42,  43,  44,  45,  46,  47,  48
  49,  50,  51,  52,  53,  54,  55,  56,  57,  58,  59,  60,  61,  62,  63,  64
  65,  66,  67,  68,  69,  70,  71,  72,  73,  74,  75,  76,  77,  78,  79,  80
  81,  82,  83,  84,  85,  86,  87,  88,  89,  90,  91,  92,  93,  94,  95,  96
  97,  98,  99, 100, 101, 102, 103, 104, 105, 106, 107, 108, 109, 110, 111, 112
 113, 114, 115, 116, 117, 118, 119, 120, 121, 122, 123, 124, 125, 126, 127, 128
 129, 130, 131, 132, 133, 134, 135, 136, 137, 138, 139, 140, 141, 142, 143, 144
 145, 146, 147, 148, 149, 150, 151, 152, 153, 154, 155, 156, 157, 158, 159, 160
 161, 162, 163, 164, 165, 166, 167, 168, 169, 170, 171, 172, 173, 174, 175, 176
 177, 178, 179, 180, 181, 182, 183, 184, 185, 186, 187, 188, 189, 190, 191, 192
 193, 194, 195, 196, 197, 198, 199, 200, 201, 202, 203, 205, 207, 209, 210, 212
 213, 215, 216, 218, 219, 221, 222, 224, 225, 227, 228, 230, 231, 233, 234, 236
 237, 239, 240, 242, 243, 245, 246, 248, 249, 251, 252, 254, 255, 257, 258, 260
 261, 263, 264, 266, 267, 269, 270, 272, 273, 275, 276, 278, 279, 281, 282, 284
 285, 287, 288, 290, 291, 293, 294, 296, 297, 299, 300, 302, 303, 305, 306, 308
 309, 311, 312, 314, 315, 317, 318, 320, 321, 323, 324, 326, 327, 329, 330, 332
 333, 335, 336, 338, 339, 341, 342, 344, 345, 347, 348, 350, 351, 353, 354, 356
 357, 359, 360, 362, 363, 365, 366, 368, 369, 371, 372, 374, 375, 377, 378, 380
** ... 6 like lines cut
*Elset, elset=TopBottom, instance=CE-1, generate
   1,  100,    1
*Elset, elset=_Farfield_S2, internal, instance=CE-1
 100,
*Surface, type=ELEMENT, name=Farfield
_Farfield_S2, S2
*Elset, elset=_LoadingSurface_S4, internal, instance=CE-1
 1,
*Surface, type=ELEMENT, name=LoadingSurface
_LoadingSurface_S4, S4
*Elset, elset=_UpperFace_S3, internal, instance=CE-1, generate
   1,  100,    1
*Surface, type=ELEMENT, name=UpperFace
_UpperFace_S3, S3
*End Assembly
*Amplitude, name=Loading
             0.,              0.,              1.,              1.
*Amplitude, name=Relief
             0.,              1.,              1.,              0.
*Amplitude, name=Unloading
             0.,              1.,              1.,            0.01
** 
** MATERIALS
** 
*Material, name=DPIsodwSD
*Density
 2.5e-06,
*Depvar
     30,
*User Material, constants=8
<E1>,     <nu>,      <kappa>, <c0>,     <dmax>,  <c1>,     <bb>,     <B>
** 
** BOUNDARY CONDITIONS
** 
** Name: BTMsymmetry Type: Symmetry/Antisymmetry/Encastre
*Boundary
Bottom, YSYMM
** 
** PREDEFINED FIELDS
** 
** Name: Geostatic   Type: Stress
*Initial Conditions, type=STRESS
All, -5., -5., -5., 0., 0., 0.
** ----------------------------------------------------------------
** 
** STEP: Geostatic
** 
*Step, name=Geostatic, nlgeom=NO, inc=1000, unsymm=YES
*Static
0.1, 1., 1e-05, 0.1
** 
** LOADS
** 
** Name: BoundaryLoading   Type: Pressure
*Dsload
Farfield, P, 5.
** Name: SurfaceLoading   Type: Pressure
*Dsload
LoadingSurface, P, 5.
** Name: YLoad   Type: Pressure
*Dsload
UpperFace, P, 5.
** 
** CONTROLS
** 
*Controls, reset
*Controls, parameters=time incrementation
, , , 100, 20, , , , , , 
** 
** OUTPUT REQUESTS
** 
*Restart, write, frequency=0
** 
** FIELD OUTPUT: F-Output-1
** 
*Output, field
*Node Output
U, 
*Element Output, directions=YES
E, EE, MISES, S, SDV
*Output, history, frequency=0
*End Step
** ----------------------------------------------------------------
** 
** STEP: StressRelief
** 
*Step, name=StressRelief, nlgeom=NO, inc=2000, unsymm=YES
*Static
0.001, 1., 1e-10, 0.005
** 
** BOUNDARY CONDITIONS
** 
** Name: TOPsymmetry Type: Displacement/Rotation
*Boundary, fixed
Top, 2, 2
** 
** LOADS
** 
** Name: BoundaryLoading   Type: Pressure
*Dsload, op=NEW
Farfield, P, 5.
** Name: SurfaceLoading   Type: Pressure
*Dsload, op=NEW
LoadingSurface, P, 0.
** Name: YLoad   Type: Pressure
*Dsload, op=NEW
** 
** CONTROLS
** 
*Controls, reset
*Controls, parameters=time incrementation
60, 80, , 100, , , , , , , 
*Controls, parameters=field, field=displacement
0.02, 0.03, , , , , , 
*Controls, parameters=field, field=hydrostatic fluid pressure
0.02, 0.03, , , , , , 
*Controls, parameters=field, field=rotation
0.02, 0.03, , , , , , 
*Controls, parameters=field, field=electrical potential
0.02, 0.03, , , , , , 
** 
** SOLVER CONTROLS
** 
*Solver Controls, reset
*Solver Controls
, 
** 
** OUTPUT REQUESTS
** 
*Restart, write, frequency=0
** 
** FIELD OUTPUT: F-Output-1
** 
*Output, field
*Node Output
U, 
*Element Output, directions=YES
E, EE, MISES, S, SDV
** 
** FIELD OUTPUT: F-Output-3
** 
*Node Output
U, 
*Element Output, directions=YES
E, ENER, S, SDV
** 
** HISTORY OUTPUT: wall_monitor
** 
*Output, history
*Node Output, nset=CE-1.wall
U1, 
*End Step
** ----------------------------------------------------------------
** 
** STEP: Pushing
** 
*Step, name=Pushing, nlgeom=NO, inc=2000, unsymm=NO
*Static
0.001, 1., 1e-10, 0.002
** 
** LOADS
** 
** Name: SurfaceLoading   Type: Pressure
*Dsload
LoadingSurface, P, 10.
** 
** CONTROLS
** 
*Controls, reset
*Controls, parameters=time incrementation
40, 60, , 100, , 100, , , , , 
*Controls, parameters=field, field=displacement
0.02, 0.03, , , , , , 
*Controls, parameters=field, field=hydrostatic fluid pressure
0.02, 0.03, , , , , , 
*Controls, parameters=field, field=rotation
0.02, 0.03, , , , , , 
*Controls, parameters=field, field=electrical potential
0.02, 0.03, , , , , , 
** 
** SOLVER CONTROLS
** 
*Solver Controls, reset
*Solver Controls
, 
** 
** OUTPUT REQUESTS
** 
*Restart, write, frequency=0
** 
** FIELD OUTPUT: F-Output-1
** 
*Output, field
*Node Output
U, 
*Element Output, directions=YES
E, EE, MISES, S, SDV
** 
** FIELD OUTPUT: F-Output-3
** 
*Node Output
U, 
*Element Output, directions=YES
E, ENER, S, SDV
** 
** HISTORY OUTPUT: wall_monitor
** 
*Output, history
*Node Output, nset=CE-1.wall
U1, 
*End Step
